* NGSPICE file created from scan_chain.ext - technology: sky130A

* Black-box entry subcircuit for sky130_fd_sc_hd__decap_6 abstract view
.subckt sky130_fd_sc_hd__decap_6 VGND VNB VPB VPWR
.ends

* Black-box entry subcircuit for sky130_ef_sc_hd__decap_12 abstract view
.subckt sky130_ef_sc_hd__decap_12 VGND VNB VPB VPWR
.ends

* Black-box entry subcircuit for sky130_fd_sc_hd__fill_1 abstract view
.subckt sky130_fd_sc_hd__fill_1 VGND VNB VPB VPWR
.ends

* Black-box entry subcircuit for sky130_fd_sc_hd__decap_4 abstract view
.subckt sky130_fd_sc_hd__decap_4 VGND VNB VPB VPWR
.ends

* Black-box entry subcircuit for sky130_fd_sc_hd__tapvpwrvgnd_1 abstract view
.subckt sky130_fd_sc_hd__tapvpwrvgnd_1 VGND VPWR
.ends

* Black-box entry subcircuit for sky130_fd_sc_hd__dfrtp_1 abstract view
.subckt sky130_fd_sc_hd__dfrtp_1 CLK D RESET_B VGND VNB VPB VPWR Q
.ends

* Black-box entry subcircuit for sky130_fd_sc_hd__fill_2 abstract view
.subckt sky130_fd_sc_hd__fill_2 VGND VNB VPB VPWR
.ends

* Black-box entry subcircuit for sky130_fd_sc_hd__decap_3 abstract view
.subckt sky130_fd_sc_hd__decap_3 VGND VNB VPB VPWR
.ends

* Black-box entry subcircuit for sky130_fd_sc_hd__mux2_1 abstract view
.subckt sky130_fd_sc_hd__mux2_1 A0 A1 S VGND VNB VPB VPWR X
.ends

* Black-box entry subcircuit for sky130_fd_sc_hd__clkbuf_4 abstract view
.subckt sky130_fd_sc_hd__clkbuf_4 A VGND VNB VPB VPWR X
.ends

* Black-box entry subcircuit for sky130_fd_sc_hd__decap_8 abstract view
.subckt sky130_fd_sc_hd__decap_8 VGND VNB VPB VPWR
.ends

* Black-box entry subcircuit for sky130_fd_sc_hd__clkbuf_1 abstract view
.subckt sky130_fd_sc_hd__clkbuf_1 A VGND VNB VPB VPWR X
.ends

* Black-box entry subcircuit for sky130_fd_sc_hd__clkbuf_16 abstract view
.subckt sky130_fd_sc_hd__clkbuf_16 A VGND VNB VPB VPWR X
.ends

* Black-box entry subcircuit for sky130_fd_sc_hd__or2_1 abstract view
.subckt sky130_fd_sc_hd__or2_1 A B VGND VNB VPB VPWR X
.ends

* Black-box entry subcircuit for sky130_fd_sc_hd__buf_4 abstract view
.subckt sky130_fd_sc_hd__buf_4 A VGND VNB VPB VPWR X
.ends

* Black-box entry subcircuit for sky130_fd_sc_hd__dlymetal6s2s_1 abstract view
.subckt sky130_fd_sc_hd__dlymetal6s2s_1 A VGND VNB VPB VPWR X
.ends

* Black-box entry subcircuit for sky130_fd_sc_hd__dlygate4sd3_1 abstract view
.subckt sky130_fd_sc_hd__dlygate4sd3_1 A VGND VNB VPB VPWR X
.ends

.subckt scan_chain VGND VPWR clk reset scan_in scan_out[0] scan_out[10] scan_out[11]
+ scan_out[12] scan_out[13] scan_out[14] scan_out[15] scan_out[16] scan_out[17] scan_out[18]
+ scan_out[19] scan_out[1] scan_out[20] scan_out[21] scan_out[22] scan_out[23] scan_out[24]
+ scan_out[25] scan_out[26] scan_out[27] scan_out[28] scan_out[29] scan_out[2] scan_out[3]
+ scan_out[4] scan_out[5] scan_out[6] scan_out[7] scan_out[8] scan_out[9]
XFILLER_0_94_77 VGND VGND VPWR VPWR sky130_fd_sc_hd__decap_6
XFILLER_0_27_93 VGND VGND VPWR VPWR sky130_ef_sc_hd__decap_12
XFILLER_0_89_461 VGND VGND VPWR VPWR sky130_ef_sc_hd__decap_12
XFILLER_0_76_133 VGND VGND VPWR VPWR sky130_fd_sc_hd__decap_6
XFILLER_0_43_81 VGND VGND VPWR VPWR sky130_ef_sc_hd__decap_12
XFILLER_0_76_177 VGND VGND VPWR VPWR sky130_ef_sc_hd__decap_12
XFILLER_0_91_125 VGND VGND VPWR VPWR sky130_ef_sc_hd__decap_12
XFILLER_0_57_391 VGND VGND VPWR VPWR sky130_fd_sc_hd__fill_1
XFILLER_0_91_169 VGND VGND VPWR VPWR sky130_ef_sc_hd__decap_12
XFILLER_0_45_553 VGND VGND VPWR VPWR sky130_fd_sc_hd__decap_6
XFILLER_0_45_597 VGND VGND VPWR VPWR sky130_ef_sc_hd__decap_12
XFILLER_0_60_501 VGND VGND VPWR VPWR sky130_ef_sc_hd__decap_12
XFILLER_0_60_545 VGND VGND VPWR VPWR sky130_ef_sc_hd__decap_12
XFILLER_0_13_461 VGND VGND VPWR VPWR sky130_ef_sc_hd__decap_12
XFILLER_0_60_589 VGND VGND VPWR VPWR sky130_ef_sc_hd__decap_12
XFILLER_0_7_81 VGND VGND VPWR VPWR sky130_ef_sc_hd__decap_12
XFILLER_0_68_601 VGND VGND VPWR VPWR sky130_ef_sc_hd__decap_12
XFILLER_0_67_111 VGND VGND VPWR VPWR sky130_fd_sc_hd__fill_1
XFILLER_0_83_615 VGND VGND VPWR VPWR sky130_fd_sc_hd__fill_1
XFILLER_0_55_317 VGND VGND VPWR VPWR sky130_ef_sc_hd__decap_12
XFILLER_0_36_531 VGND VGND VPWR VPWR sky130_fd_sc_hd__fill_1
XFILLER_0_70_309 VGND VGND VPWR VPWR sky130_ef_sc_hd__decap_12
XFILLER_0_3_609 VGND VGND VPWR VPWR sky130_fd_sc_hd__decap_6
XFILLER_0_63_361 VGND VGND VPWR VPWR sky130_ef_sc_hd__decap_12
XFILLER_0_23_225 VGND VGND VPWR VPWR sky130_ef_sc_hd__decap_12
XFILLER_0_48_15 VGND VGND VPWR VPWR sky130_ef_sc_hd__decap_12
XFILLER_0_3_39 VGND VGND VPWR VPWR sky130_ef_sc_hd__decap_12
XFILLER_0_58_133 VGND VGND VPWR VPWR sky130_fd_sc_hd__decap_6
XFILLER_0_86_475 VGND VGND VPWR VPWR sky130_fd_sc_hd__fill_1
XFILLER_0_13_51 VGND VGND VPWR VPWR sky130_fd_sc_hd__decap_4
XFILLER_0_58_177 VGND VGND VPWR VPWR sky130_ef_sc_hd__decap_12
XFILLER_0_73_125 VGND VGND VPWR VPWR sky130_ef_sc_hd__decap_12
XFILLER_0_27_553 VGND VGND VPWR VPWR sky130_fd_sc_hd__decap_6
XFILLER_0_39_391 VGND VGND VPWR VPWR sky130_fd_sc_hd__fill_1
XFILLER_0_73_169 VGND VGND VPWR VPWR sky130_ef_sc_hd__decap_12
XFILLER_0_6_469 VGND VGND VPWR VPWR sky130_fd_sc_hd__decap_6
XFILLER_0_27_597 VGND VGND VPWR VPWR sky130_ef_sc_hd__decap_12
XFILLER_0_42_501 VGND VGND VPWR VPWR sky130_ef_sc_hd__decap_12
XFILLER_0_89_55 VGND VGND VPWR VPWR sky130_fd_sc_hd__fill_1
XFILLER_0_42_545 VGND VGND VPWR VPWR sky130_ef_sc_hd__decap_12
XFILLER_0_42_589 VGND VGND VPWR VPWR sky130_ef_sc_hd__decap_12
XFILLER_0_10_475 VGND VGND VPWR VPWR sky130_fd_sc_hd__fill_1
XTAP_1129 VGND VPWR sky130_fd_sc_hd__tapvpwrvgnd_1
XTAP_1118 VGND VPWR sky130_fd_sc_hd__tapvpwrvgnd_1
XTAP_1107 VGND VPWR sky130_fd_sc_hd__tapvpwrvgnd_1
XFILLER_0_49_111 VGND VGND VPWR VPWR sky130_fd_sc_hd__fill_1
XFILLER_0_92_401 VGND VGND VPWR VPWR sky130_ef_sc_hd__decap_12
XFILLER_0_65_615 VGND VGND VPWR VPWR sky130_fd_sc_hd__fill_1
XFILLER_0_77_497 VGND VGND VPWR VPWR sky130_fd_sc_hd__decap_6
XFILLER_0_37_317 VGND VGND VPWR VPWR sky130_ef_sc_hd__decap_12
XFILLER_0_92_445 VGND VGND VPWR VPWR sky130_ef_sc_hd__decap_12
XFILLER_0_18_531 VGND VGND VPWR VPWR sky130_fd_sc_hd__fill_1
XFILLER_0_52_309 VGND VGND VPWR VPWR sky130_ef_sc_hd__decap_12
XFILLER_0_92_489 VGND VGND VPWR VPWR sky130_ef_sc_hd__decap_12
XFILLER_0_45_361 VGND VGND VPWR VPWR sky130_ef_sc_hd__decap_12
XFILLER_0_18_29 VGND VGND VPWR VPWR sky130_ef_sc_hd__decap_12
XFILLER_0_87_217 VGND VGND VPWR VPWR sky130_fd_sc_hd__decap_6
XFILLER_0_68_475 VGND VGND VPWR VPWR sky130_fd_sc_hd__fill_1
XFILLER_0_95_261 VGND VGND VPWR VPWR sky130_ef_sc_hd__decap_12
XFILLER_0_55_125 VGND VGND VPWR VPWR sky130_ef_sc_hd__decap_12
XFILLER_0_50_27 VGND VGND VPWR VPWR sky130_fd_sc_hd__fill_1
XFILLER_0_24_501 VGND VGND VPWR VPWR sky130_ef_sc_hd__decap_12
XFILLER_0_55_169 VGND VGND VPWR VPWR sky130_ef_sc_hd__decap_12
XFILLER_0_3_417 VGND VGND VPWR VPWR sky130_ef_sc_hd__decap_12
XFILLER_0_24_545 VGND VGND VPWR VPWR sky130_ef_sc_hd__decap_12
XFILLER_0_70_139 VGND VGND VPWR VPWR sky130_fd_sc_hd__fill_1
XFILLER_0_24_589 VGND VGND VPWR VPWR sky130_ef_sc_hd__decap_12
XFILLER_0_11_217 VGND VGND VPWR VPWR sky130_fd_sc_hd__decap_6
XFILLER_0_59_69 VGND VGND VPWR VPWR sky130_ef_sc_hd__decap_12
XFILLER_0_75_57 VGND VGND VPWR VPWR sky130_ef_sc_hd__decap_12
XFILLER_0_47_615 VGND VGND VPWR VPWR sky130_fd_sc_hd__fill_1
XFILLER_0_19_317 VGND VGND VPWR VPWR sky130_ef_sc_hd__decap_12
XFILLER_0_24_83 VGND VGND VPWR VPWR sky130_fd_sc_hd__fill_1
XFILLER_0_59_497 VGND VGND VPWR VPWR sky130_fd_sc_hd__decap_6
XFILLER_0_74_401 VGND VGND VPWR VPWR sky130_ef_sc_hd__decap_12
XFILLER_0_74_445 VGND VGND VPWR VPWR sky130_ef_sc_hd__decap_12
XFILLER_0_6_233 VGND VGND VPWR VPWR sky130_ef_sc_hd__decap_12
XFILLER_0_27_361 VGND VGND VPWR VPWR sky130_ef_sc_hd__decap_12
XFILLER_0_34_309 VGND VGND VPWR VPWR sky130_ef_sc_hd__decap_12
XFILLER_0_74_489 VGND VGND VPWR VPWR sky130_ef_sc_hd__decap_12
XFILLER_0_6_277 VGND VGND VPWR VPWR sky130_ef_sc_hd__decap_12
XFILLER_0_71_3 VGND VGND VPWR VPWR sky130_ef_sc_hd__decap_12
XFILLER_0_100_469 VGND VGND VPWR VPWR sky130_fd_sc_hd__decap_6
XFILLER_0_69_217 VGND VGND VPWR VPWR sky130_fd_sc_hd__decap_6
XFILLER_0_84_209 VGND VGND VPWR VPWR sky130_ef_sc_hd__decap_12
XFILLER_0_77_261 VGND VGND VPWR VPWR sky130_ef_sc_hd__decap_12
XFILLER_0_37_125 VGND VGND VPWR VPWR sky130_ef_sc_hd__decap_12
X_131_ clknet_2_2__leaf_clk _005_ net43 VGND VGND VPWR VPWR net16 sky130_fd_sc_hd__dfrtp_1
XFILLER_0_92_253 VGND VGND VPWR VPWR sky130_ef_sc_hd__decap_12
XFILLER_0_37_169 VGND VGND VPWR VPWR sky130_ef_sc_hd__decap_12
XFILLER_0_52_139 VGND VGND VPWR VPWR sky130_fd_sc_hd__fill_1
XFILLER_0_21_559 VGND VGND VPWR VPWR sky130_fd_sc_hd__fill_1
XFILLER_0_29_39 VGND VGND VPWR VPWR sky130_ef_sc_hd__decap_12
XFILLER_0_45_27 VGND VGND VPWR VPWR sky130_ef_sc_hd__decap_12
XFILLER_0_0_29 VGND VGND VPWR VPWR sky130_ef_sc_hd__decap_12
XFILLER_0_61_15 VGND VGND VPWR VPWR sky130_ef_sc_hd__decap_12
XFILLER_0_29_615 VGND VGND VPWR VPWR sky130_fd_sc_hd__fill_1
XFILLER_0_56_401 VGND VGND VPWR VPWR sky130_ef_sc_hd__decap_12
XFILLER_0_56_445 VGND VGND VPWR VPWR sky130_ef_sc_hd__decap_12
XFILLER_0_16_309 VGND VGND VPWR VPWR sky130_ef_sc_hd__decap_12
XFILLER_0_56_489 VGND VGND VPWR VPWR sky130_ef_sc_hd__decap_12
XFILLER_0_9_27 VGND VGND VPWR VPWR sky130_ef_sc_hd__decap_12
XFILLER_0_3_225 VGND VGND VPWR VPWR sky130_ef_sc_hd__decap_12
XFILLER_0_10_41 VGND VGND VPWR VPWR sky130_ef_sc_hd__decap_12
XFILLER_0_51_161 VGND VGND VPWR VPWR sky130_fd_sc_hd__decap_6
XFILLER_0_10_85 VGND VGND VPWR VPWR sky130_ef_sc_hd__decap_12
XFILLER_0_20_581 VGND VGND VPWR VPWR sky130_fd_sc_hd__decap_6
XFILLER_0_79_559 VGND VGND VPWR VPWR sky130_fd_sc_hd__fill_1
XFILLER_0_35_93 VGND VGND VPWR VPWR sky130_ef_sc_hd__decap_12
XFILLER_0_66_209 VGND VGND VPWR VPWR sky130_ef_sc_hd__decap_12
XFILLER_0_59_261 VGND VGND VPWR VPWR sky130_ef_sc_hd__decap_12
XFILLER_0_19_125 VGND VGND VPWR VPWR sky130_ef_sc_hd__decap_12
XFILLER_0_19_169 VGND VGND VPWR VPWR sky130_ef_sc_hd__decap_12
XFILLER_0_51_81 VGND VGND VPWR VPWR sky130_ef_sc_hd__decap_12
XFILLER_0_74_253 VGND VGND VPWR VPWR sky130_ef_sc_hd__decap_12
XFILLER_0_7_553 VGND VGND VPWR VPWR sky130_fd_sc_hd__decap_6
XFILLER_0_34_139 VGND VGND VPWR VPWR sky130_fd_sc_hd__fill_1
XFILLER_0_7_597 VGND VGND VPWR VPWR sky130_ef_sc_hd__decap_12
XFILLER_0_30_301 VGND VGND VPWR VPWR sky130_fd_sc_hd__decap_6
XFILLER_0_30_345 VGND VGND VPWR VPWR sky130_ef_sc_hd__decap_12
XFILLER_0_30_389 VGND VGND VPWR VPWR sky130_ef_sc_hd__decap_12
XFILLER_0_97_334 VGND VGND VPWR VPWR sky130_fd_sc_hd__fill_2
XFILLER_0_97_389 VGND VGND VPWR VPWR sky130_fd_sc_hd__decap_3
XFILLER_0_85_529 VGND VGND VPWR VPWR sky130_ef_sc_hd__decap_12
XFILLER_0_78_581 VGND VGND VPWR VPWR sky130_fd_sc_hd__decap_6
XFILLER_0_38_401 VGND VGND VPWR VPWR sky130_ef_sc_hd__decap_12
XFILLER_0_38_445 VGND VGND VPWR VPWR sky130_ef_sc_hd__decap_12
XFILLER_0_93_573 VGND VGND VPWR VPWR sky130_ef_sc_hd__decap_12
XFILLER_0_38_489 VGND VGND VPWR VPWR sky130_ef_sc_hd__decap_12
X_114_ net4 net35 _032_ VGND VGND VPWR VPWR _037_ sky130_fd_sc_hd__mux2_1
XFILLER_0_80_245 VGND VGND VPWR VPWR sky130_fd_sc_hd__decap_6
XFILLER_0_80_289 VGND VGND VPWR VPWR sky130_ef_sc_hd__decap_12
XFILLER_0_33_161 VGND VGND VPWR VPWR sky130_fd_sc_hd__decap_6
XFILLER_0_40_109 VGND VGND VPWR VPWR sky130_ef_sc_hd__decap_12
XTAP_507 VGND VPWR sky130_fd_sc_hd__tapvpwrvgnd_1
XTAP_518 VGND VPWR sky130_fd_sc_hd__tapvpwrvgnd_1
XTAP_529 VGND VPWR sky130_fd_sc_hd__tapvpwrvgnd_1
XFILLER_0_56_15 VGND VGND VPWR VPWR sky130_ef_sc_hd__decap_12
XFILLER_0_88_301 VGND VGND VPWR VPWR sky130_fd_sc_hd__decap_6
XFILLER_0_88_345 VGND VGND VPWR VPWR sky130_ef_sc_hd__decap_12
XFILLER_0_48_209 VGND VGND VPWR VPWR sky130_ef_sc_hd__decap_12
XFILLER_0_88_389 VGND VGND VPWR VPWR sky130_ef_sc_hd__decap_12
XTAP_1290 VGND VPWR sky130_fd_sc_hd__tapvpwrvgnd_1
XFILLER_0_56_253 VGND VGND VPWR VPWR sky130_ef_sc_hd__decap_12
XFILLER_0_16_139 VGND VGND VPWR VPWR sky130_fd_sc_hd__fill_1
XFILLER_0_4_501 VGND VGND VPWR VPWR sky130_ef_sc_hd__decap_12
XFILLER_0_71_223 VGND VGND VPWR VPWR sky130_fd_sc_hd__fill_1
XFILLER_0_21_51 VGND VGND VPWR VPWR sky130_fd_sc_hd__decap_4
XFILLER_0_12_301 VGND VGND VPWR VPWR sky130_fd_sc_hd__decap_6
XFILLER_0_4_545 VGND VGND VPWR VPWR sky130_ef_sc_hd__decap_12
XFILLER_0_97_55 VGND VGND VPWR VPWR sky130_fd_sc_hd__fill_1
XFILLER_0_12_345 VGND VGND VPWR VPWR sky130_ef_sc_hd__decap_12
XFILLER_0_4_589 VGND VGND VPWR VPWR sky130_ef_sc_hd__decap_12
XFILLER_0_12_389 VGND VGND VPWR VPWR sky130_ef_sc_hd__decap_12
XFILLER_0_34_3 VGND VGND VPWR VPWR sky130_ef_sc_hd__decap_12
XFILLER_0_98_109 VGND VGND VPWR VPWR sky130_ef_sc_hd__decap_12
XFILLER_0_67_529 VGND VGND VPWR VPWR sky130_ef_sc_hd__decap_12
XFILLER_0_75_573 VGND VGND VPWR VPWR sky130_ef_sc_hd__decap_12
XFILLER_0_7_361 VGND VGND VPWR VPWR sky130_ef_sc_hd__decap_12
XFILLER_0_62_245 VGND VGND VPWR VPWR sky130_fd_sc_hd__decap_6
XFILLER_0_90_587 VGND VGND VPWR VPWR sky130_fd_sc_hd__fill_1
XFILLER_0_15_161 VGND VGND VPWR VPWR sky130_fd_sc_hd__decap_6
XFILLER_0_22_109 VGND VGND VPWR VPWR sky130_ef_sc_hd__decap_12
XFILLER_0_62_289 VGND VGND VPWR VPWR sky130_ef_sc_hd__decap_12
XFILLER_0_30_153 VGND VGND VPWR VPWR sky130_ef_sc_hd__decap_12
XFILLER_0_30_197 VGND VGND VPWR VPWR sky130_ef_sc_hd__decap_12
XFILLER_0_26_29 VGND VGND VPWR VPWR sky130_ef_sc_hd__decap_12
XFILLER_0_97_175 VGND VGND VPWR VPWR sky130_fd_sc_hd__decap_3
XFILLER_0_85_337 VGND VGND VPWR VPWR sky130_ef_sc_hd__decap_12
XFILLER_0_38_253 VGND VGND VPWR VPWR sky130_ef_sc_hd__decap_12
XFILLER_0_53_223 VGND VGND VPWR VPWR sky130_fd_sc_hd__fill_1
XFILLER_0_41_429 VGND VGND VPWR VPWR sky130_ef_sc_hd__decap_12
XFILLER_0_1_559 VGND VGND VPWR VPWR sky130_fd_sc_hd__fill_1
XTAP_315 VGND VPWR sky130_fd_sc_hd__tapvpwrvgnd_1
XTAP_304 VGND VPWR sky130_fd_sc_hd__tapvpwrvgnd_1
XTAP_348 VGND VPWR sky130_fd_sc_hd__tapvpwrvgnd_1
XTAP_337 VGND VPWR sky130_fd_sc_hd__tapvpwrvgnd_1
XTAP_326 VGND VPWR sky130_fd_sc_hd__tapvpwrvgnd_1
XFILLER_0_67_69 VGND VGND VPWR VPWR sky130_ef_sc_hd__decap_12
XTAP_359 VGND VPWR sky130_fd_sc_hd__tapvpwrvgnd_1
XFILLER_0_83_57 VGND VGND VPWR VPWR sky130_ef_sc_hd__decap_12
XFILLER_0_88_153 VGND VGND VPWR VPWR sky130_ef_sc_hd__decap_12
XFILLER_0_49_529 VGND VGND VPWR VPWR sky130_ef_sc_hd__decap_12
XFILLER_0_88_197 VGND VGND VPWR VPWR sky130_ef_sc_hd__decap_12
XFILLER_0_9_615 VGND VGND VPWR VPWR sky130_fd_sc_hd__fill_1
XFILLER_0_57_573 VGND VGND VPWR VPWR sky130_ef_sc_hd__decap_12
XFILLER_0_91_329 VGND VGND VPWR VPWR sky130_fd_sc_hd__decap_6
XFILLER_0_32_83 VGND VGND VPWR VPWR sky130_fd_sc_hd__fill_1
XFILLER_0_44_245 VGND VGND VPWR VPWR sky130_fd_sc_hd__decap_6
XFILLER_0_44_289 VGND VGND VPWR VPWR sky130_ef_sc_hd__decap_12
XFILLER_0_72_587 VGND VGND VPWR VPWR sky130_fd_sc_hd__fill_1
XFILLER_0_12_153 VGND VGND VPWR VPWR sky130_ef_sc_hd__decap_12
XFILLER_0_12_197 VGND VGND VPWR VPWR sky130_ef_sc_hd__decap_12
XTAP_860 VGND VPWR sky130_fd_sc_hd__tapvpwrvgnd_1
XTAP_871 VGND VPWR sky130_fd_sc_hd__tapvpwrvgnd_1
XTAP_882 VGND VPWR sky130_fd_sc_hd__tapvpwrvgnd_1
XTAP_893 VGND VPWR sky130_fd_sc_hd__tapvpwrvgnd_1
XFILLER_0_67_337 VGND VGND VPWR VPWR sky130_ef_sc_hd__decap_12
XFILLER_0_82_307 VGND VGND VPWR VPWR sky130_fd_sc_hd__fill_1
XFILLER_0_94_189 VGND VGND VPWR VPWR sky130_fd_sc_hd__decap_6
XFILLER_0_35_223 VGND VGND VPWR VPWR sky130_fd_sc_hd__fill_1
XFILLER_0_23_429 VGND VGND VPWR VPWR sky130_ef_sc_hd__decap_12
Xoutput20 net20 VGND VGND VPWR VPWR scan_out[25] sky130_fd_sc_hd__clkbuf_4
Xoutput7 net7 VGND VGND VPWR VPWR scan_out[13] sky130_fd_sc_hd__clkbuf_4
Xoutput31 net31 VGND VGND VPWR VPWR scan_out[8] sky130_fd_sc_hd__clkbuf_4
XFILLER_0_31_473 VGND VGND VPWR VPWR sky130_ef_sc_hd__decap_12
XFILLER_0_101_383 VGND VGND VPWR VPWR sky130_fd_sc_hd__decap_8
XFILLER_0_37_39 VGND VGND VPWR VPWR sky130_ef_sc_hd__decap_12
XFILLER_0_53_27 VGND VGND VPWR VPWR sky130_ef_sc_hd__decap_12
XFILLER_0_86_613 VGND VGND VPWR VPWR sky130_ef_sc_hd__decap_12
XFILLER_0_85_167 VGND VGND VPWR VPWR sky130_fd_sc_hd__fill_1
XPHY_170 VGND VGND VPWR VPWR sky130_fd_sc_hd__decap_3
XFILLER_0_39_573 VGND VGND VPWR VPWR sky130_ef_sc_hd__decap_12
XFILLER_0_73_329 VGND VGND VPWR VPWR sky130_fd_sc_hd__decap_6
XPHY_192 VGND VGND VPWR VPWR sky130_fd_sc_hd__decap_3
XPHY_181 VGND VGND VPWR VPWR sky130_fd_sc_hd__decap_3
XFILLER_0_26_245 VGND VGND VPWR VPWR sky130_fd_sc_hd__decap_6
XFILLER_0_81_373 VGND VGND VPWR VPWR sky130_ef_sc_hd__decap_12
XFILLER_0_26_289 VGND VGND VPWR VPWR sky130_ef_sc_hd__decap_12
XFILLER_0_54_587 VGND VGND VPWR VPWR sky130_fd_sc_hd__fill_1
XFILLER_0_41_237 VGND VGND VPWR VPWR sky130_ef_sc_hd__decap_12
XFILLER_0_10_613 VGND VGND VPWR VPWR sky130_ef_sc_hd__decap_12
XFILLER_0_89_473 VGND VGND VPWR VPWR sky130_ef_sc_hd__decap_12
XFILLER_0_49_337 VGND VGND VPWR VPWR sky130_ef_sc_hd__decap_12
XFILLER_0_64_307 VGND VGND VPWR VPWR sky130_fd_sc_hd__fill_1
XFILLER_0_43_93 VGND VGND VPWR VPWR sky130_ef_sc_hd__decap_12
XFILLER_0_76_189 VGND VGND VPWR VPWR sky130_fd_sc_hd__decap_6
XFILLER_0_91_137 VGND VGND VPWR VPWR sky130_ef_sc_hd__decap_12
XFILLER_0_17_223 VGND VGND VPWR VPWR sky130_fd_sc_hd__fill_1
XFILLER_0_60_513 VGND VGND VPWR VPWR sky130_ef_sc_hd__decap_12
XFILLER_0_60_557 VGND VGND VPWR VPWR sky130_ef_sc_hd__decap_12
XFILLER_0_13_473 VGND VGND VPWR VPWR sky130_ef_sc_hd__decap_12
XFILLER_0_7_93 VGND VGND VPWR VPWR sky130_ef_sc_hd__decap_12
XTAP_690 VGND VPWR sky130_fd_sc_hd__tapvpwrvgnd_1
XFILLER_0_99_237 VGND VGND VPWR VPWR sky130_fd_sc_hd__decap_3
XFILLER_0_68_613 VGND VGND VPWR VPWR sky130_ef_sc_hd__decap_12
XFILLER_0_67_167 VGND VGND VPWR VPWR sky130_fd_sc_hd__fill_1
XFILLER_0_95_487 VGND VGND VPWR VPWR sky130_ef_sc_hd__decap_12
XFILLER_0_55_329 VGND VGND VPWR VPWR sky130_fd_sc_hd__decap_6
XFILLER_0_36_587 VGND VGND VPWR VPWR sky130_fd_sc_hd__fill_1
XFILLER_0_63_373 VGND VGND VPWR VPWR sky130_ef_sc_hd__decap_12
XFILLER_0_2_109 VGND VGND VPWR VPWR sky130_ef_sc_hd__decap_12
XFILLER_0_23_237 VGND VGND VPWR VPWR sky130_ef_sc_hd__decap_12
XFILLER_0_31_281 VGND VGND VPWR VPWR sky130_ef_sc_hd__decap_12
XFILLER_0_48_27 VGND VGND VPWR VPWR sky130_fd_sc_hd__fill_1
XFILLER_0_64_15 VGND VGND VPWR VPWR sky130_ef_sc_hd__decap_12
XFILLER_0_86_421 VGND VGND VPWR VPWR sky130_ef_sc_hd__decap_12
XFILLER_0_46_307 VGND VGND VPWR VPWR sky130_fd_sc_hd__fill_1
XFILLER_0_58_189 VGND VGND VPWR VPWR sky130_fd_sc_hd__decap_6
XFILLER_0_73_137 VGND VGND VPWR VPWR sky130_ef_sc_hd__decap_12
XFILLER_0_42_513 VGND VGND VPWR VPWR sky130_ef_sc_hd__decap_12
XFILLER_0_81_181 VGND VGND VPWR VPWR sky130_ef_sc_hd__decap_12
XFILLER_0_42_557 VGND VGND VPWR VPWR sky130_ef_sc_hd__decap_12
XFILLER_0_10_421 VGND VGND VPWR VPWR sky130_ef_sc_hd__decap_12
XFILLER_0_89_281 VGND VGND VPWR VPWR sky130_ef_sc_hd__decap_12
XTAP_1119 VGND VPWR sky130_fd_sc_hd__tapvpwrvgnd_1
XTAP_1108 VGND VPWR sky130_fd_sc_hd__tapvpwrvgnd_1
XFILLER_0_92_413 VGND VGND VPWR VPWR sky130_fd_sc_hd__decap_6
XFILLER_0_37_329 VGND VGND VPWR VPWR sky130_fd_sc_hd__decap_6
XFILLER_0_49_167 VGND VGND VPWR VPWR sky130_fd_sc_hd__fill_1
XFILLER_0_92_457 VGND VGND VPWR VPWR sky130_ef_sc_hd__decap_12
XFILLER_0_18_587 VGND VGND VPWR VPWR sky130_fd_sc_hd__fill_1
XFILLER_0_45_373 VGND VGND VPWR VPWR sky130_ef_sc_hd__decap_12
XFILLER_0_60_321 VGND VGND VPWR VPWR sky130_ef_sc_hd__decap_12
XFILLER_0_60_365 VGND VGND VPWR VPWR sky130_ef_sc_hd__decap_12
XFILLER_0_13_281 VGND VGND VPWR VPWR sky130_ef_sc_hd__decap_12
XFILLER_0_34_29 VGND VGND VPWR VPWR sky130_ef_sc_hd__decap_12
XFILLER_0_68_421 VGND VGND VPWR VPWR sky130_ef_sc_hd__decap_12
XFILLER_0_95_273 VGND VGND VPWR VPWR sky130_fd_sc_hd__decap_6
XFILLER_0_28_307 VGND VGND VPWR VPWR sky130_fd_sc_hd__fill_1
XFILLER_0_55_137 VGND VGND VPWR VPWR sky130_ef_sc_hd__decap_12
XFILLER_0_24_513 VGND VGND VPWR VPWR sky130_ef_sc_hd__decap_12
XFILLER_0_63_181 VGND VGND VPWR VPWR sky130_ef_sc_hd__decap_12
XFILLER_0_3_429 VGND VGND VPWR VPWR sky130_ef_sc_hd__decap_12
XFILLER_0_24_557 VGND VGND VPWR VPWR sky130_ef_sc_hd__decap_12
XFILLER_0_59_15 VGND VGND VPWR VPWR sky130_ef_sc_hd__decap_12
XFILLER_0_75_69 VGND VGND VPWR VPWR sky130_ef_sc_hd__decap_12
XFILLER_0_99_590 VGND VGND VPWR VPWR sky130_ef_sc_hd__decap_12
XFILLER_0_91_57 VGND VGND VPWR VPWR sky130_ef_sc_hd__decap_12
XFILLER_0_86_251 VGND VGND VPWR VPWR sky130_fd_sc_hd__fill_1
XFILLER_0_19_329 VGND VGND VPWR VPWR sky130_fd_sc_hd__decap_6
XFILLER_0_74_413 VGND VGND VPWR VPWR sky130_fd_sc_hd__decap_6
XFILLER_0_74_457 VGND VGND VPWR VPWR sky130_ef_sc_hd__decap_12
XFILLER_0_6_245 VGND VGND VPWR VPWR sky130_fd_sc_hd__decap_6
XFILLER_0_27_373 VGND VGND VPWR VPWR sky130_ef_sc_hd__decap_12
XFILLER_0_42_321 VGND VGND VPWR VPWR sky130_ef_sc_hd__decap_12
XFILLER_0_6_289 VGND VGND VPWR VPWR sky130_ef_sc_hd__decap_12
XFILLER_0_40_83 VGND VGND VPWR VPWR sky130_fd_sc_hd__fill_1
XFILLER_0_42_365 VGND VGND VPWR VPWR sky130_ef_sc_hd__decap_12
XFILLER_0_64_3 VGND VGND VPWR VPWR sky130_ef_sc_hd__decap_12
XFILLER_0_10_251 VGND VGND VPWR VPWR sky130_fd_sc_hd__fill_1
XFILLER_0_49_81 VGND VGND VPWR VPWR sky130_ef_sc_hd__decap_12
XFILLER_0_4_83 VGND VGND VPWR VPWR sky130_fd_sc_hd__fill_1
XFILLER_0_97_505 VGND VGND VPWR VPWR sky130_ef_sc_hd__decap_12
XFILLER_0_77_273 VGND VGND VPWR VPWR sky130_fd_sc_hd__decap_6
XFILLER_0_92_221 VGND VGND VPWR VPWR sky130_ef_sc_hd__decap_12
XFILLER_0_37_137 VGND VGND VPWR VPWR sky130_ef_sc_hd__decap_12
X_130_ clknet_2_2__leaf_clk _004_ net43 VGND VGND VPWR VPWR net15 sky130_fd_sc_hd__dfrtp_1
XFILLER_0_92_265 VGND VGND VPWR VPWR sky130_ef_sc_hd__decap_12
XFILLER_0_45_181 VGND VGND VPWR VPWR sky130_ef_sc_hd__decap_12
XFILLER_0_21_505 VGND VGND VPWR VPWR sky130_ef_sc_hd__decap_12
XFILLER_0_60_195 VGND VGND VPWR VPWR sky130_fd_sc_hd__fill_1
XFILLER_0_45_39 VGND VGND VPWR VPWR sky130_ef_sc_hd__decap_12
XFILLER_0_56_413 VGND VGND VPWR VPWR sky130_fd_sc_hd__decap_6
XFILLER_0_61_27 VGND VGND VPWR VPWR sky130_ef_sc_hd__decap_12
XFILLER_0_68_251 VGND VGND VPWR VPWR sky130_fd_sc_hd__fill_1
XFILLER_0_56_457 VGND VGND VPWR VPWR sky130_ef_sc_hd__decap_12
XFILLER_0_71_405 VGND VGND VPWR VPWR sky130_ef_sc_hd__decap_12
XFILLER_0_9_39 VGND VGND VPWR VPWR sky130_ef_sc_hd__decap_12
XFILLER_0_24_321 VGND VGND VPWR VPWR sky130_ef_sc_hd__decap_12
XFILLER_0_71_449 VGND VGND VPWR VPWR sky130_ef_sc_hd__decap_12
XFILLER_0_101_55 VGND VGND VPWR VPWR sky130_fd_sc_hd__fill_1
XFILLER_0_10_53 VGND VGND VPWR VPWR sky130_ef_sc_hd__decap_12
XFILLER_0_3_237 VGND VGND VPWR VPWR sky130_ef_sc_hd__decap_12
XFILLER_0_24_365 VGND VGND VPWR VPWR sky130_ef_sc_hd__decap_12
XFILLER_0_10_97 VGND VGND VPWR VPWR sky130_ef_sc_hd__decap_12
XFILLER_0_19_51 VGND VGND VPWR VPWR sky130_fd_sc_hd__decap_4
XFILLER_0_79_505 VGND VGND VPWR VPWR sky130_ef_sc_hd__decap_12
XFILLER_0_59_273 VGND VGND VPWR VPWR sky130_fd_sc_hd__decap_6
XFILLER_0_19_137 VGND VGND VPWR VPWR sky130_ef_sc_hd__decap_12
XFILLER_0_74_221 VGND VGND VPWR VPWR sky130_ef_sc_hd__decap_12
XFILLER_0_74_265 VGND VGND VPWR VPWR sky130_ef_sc_hd__decap_12
XFILLER_0_51_93 VGND VGND VPWR VPWR sky130_ef_sc_hd__decap_12
XFILLER_0_27_181 VGND VGND VPWR VPWR sky130_ef_sc_hd__decap_12
XFILLER_0_42_195 VGND VGND VPWR VPWR sky130_fd_sc_hd__fill_1
XFILLER_0_30_357 VGND VGND VPWR VPWR sky130_fd_sc_hd__decap_6
XFILLER_0_38_413 VGND VGND VPWR VPWR sky130_fd_sc_hd__decap_6
XFILLER_0_93_541 VGND VGND VPWR VPWR sky130_ef_sc_hd__decap_12
XFILLER_0_38_457 VGND VGND VPWR VPWR sky130_ef_sc_hd__decap_12
XFILLER_0_53_405 VGND VGND VPWR VPWR sky130_ef_sc_hd__decap_12
XFILLER_0_93_585 VGND VGND VPWR VPWR sky130_ef_sc_hd__decap_12
XFILLER_0_53_449 VGND VGND VPWR VPWR sky130_ef_sc_hd__decap_12
X_113_ _036_ VGND VGND VPWR VPWR _023_ sky130_fd_sc_hd__clkbuf_1
XFILLER_0_21_335 VGND VGND VPWR VPWR sky130_fd_sc_hd__fill_1
XTAP_508 VGND VPWR sky130_fd_sc_hd__tapvpwrvgnd_1
XTAP_519 VGND VPWR sky130_fd_sc_hd__tapvpwrvgnd_1
XFILLER_0_56_27 VGND VGND VPWR VPWR sky130_fd_sc_hd__fill_1
XFILLER_0_72_15 VGND VGND VPWR VPWR sky130_ef_sc_hd__decap_12
XFILLER_0_88_357 VGND VGND VPWR VPWR sky130_fd_sc_hd__decap_6
XFILLER_0_8_307 VGND VGND VPWR VPWR sky130_fd_sc_hd__fill_1
XFILLER_0_56_221 VGND VGND VPWR VPWR sky130_ef_sc_hd__decap_12
XTAP_1291 VGND VPWR sky130_fd_sc_hd__tapvpwrvgnd_1
XTAP_1280 VGND VPWR sky130_fd_sc_hd__tapvpwrvgnd_1
XFILLER_0_56_265 VGND VGND VPWR VPWR sky130_ef_sc_hd__decap_12
XFILLER_0_4_513 VGND VGND VPWR VPWR sky130_ef_sc_hd__decap_12
XFILLER_0_4_557 VGND VGND VPWR VPWR sky130_ef_sc_hd__decap_12
XFILLER_0_71_279 VGND VGND VPWR VPWR sky130_fd_sc_hd__fill_1
XFILLER_0_24_195 VGND VGND VPWR VPWR sky130_fd_sc_hd__fill_1
XFILLER_0_12_357 VGND VGND VPWR VPWR sky130_fd_sc_hd__decap_6
XFILLER_0_27_3 VGND VGND VPWR VPWR sky130_ef_sc_hd__decap_12
XFILLER_0_79_335 VGND VGND VPWR VPWR sky130_fd_sc_hd__fill_1
XFILLER_0_1_51 VGND VGND VPWR VPWR sky130_fd_sc_hd__decap_4
XFILLER_0_75_541 VGND VGND VPWR VPWR sky130_ef_sc_hd__decap_12
XFILLER_0_35_405 VGND VGND VPWR VPWR sky130_ef_sc_hd__decap_12
XFILLER_0_90_533 VGND VGND VPWR VPWR sky130_ef_sc_hd__decap_12
XFILLER_0_75_585 VGND VGND VPWR VPWR sky130_ef_sc_hd__decap_12
XFILLER_0_7_373 VGND VGND VPWR VPWR sky130_ef_sc_hd__decap_12
XFILLER_0_35_449 VGND VGND VPWR VPWR sky130_ef_sc_hd__decap_12
XFILLER_0_50_419 VGND VGND VPWR VPWR sky130_fd_sc_hd__fill_1
XFILLER_0_30_121 VGND VGND VPWR VPWR sky130_ef_sc_hd__decap_12
XFILLER_0_30_165 VGND VGND VPWR VPWR sky130_ef_sc_hd__decap_12
XFILLER_0_101_565 VGND VGND VPWR VPWR sky130_fd_sc_hd__fill_1
XFILLER_0_85_305 VGND VGND VPWR VPWR sky130_ef_sc_hd__decap_12
XFILLER_0_85_349 VGND VGND VPWR VPWR sky130_ef_sc_hd__decap_12
XFILLER_0_38_221 VGND VGND VPWR VPWR sky130_ef_sc_hd__decap_12
XFILLER_0_42_29 VGND VGND VPWR VPWR sky130_ef_sc_hd__decap_12
XFILLER_0_38_265 VGND VGND VPWR VPWR sky130_ef_sc_hd__decap_12
XFILLER_0_93_393 VGND VGND VPWR VPWR sky130_ef_sc_hd__decap_12
XFILLER_0_53_279 VGND VGND VPWR VPWR sky130_fd_sc_hd__fill_1
XFILLER_0_1_505 VGND VGND VPWR VPWR sky130_ef_sc_hd__decap_12
XFILLER_0_6_29 VGND VGND VPWR VPWR sky130_ef_sc_hd__decap_12
XTAP_305 VGND VPWR sky130_fd_sc_hd__tapvpwrvgnd_1
XFILLER_0_67_15 VGND VGND VPWR VPWR sky130_ef_sc_hd__decap_12
XTAP_349 VGND VPWR sky130_fd_sc_hd__tapvpwrvgnd_1
XTAP_338 VGND VPWR sky130_fd_sc_hd__tapvpwrvgnd_1
XTAP_327 VGND VPWR sky130_fd_sc_hd__tapvpwrvgnd_1
XTAP_316 VGND VPWR sky130_fd_sc_hd__tapvpwrvgnd_1
XFILLER_0_83_69 VGND VGND VPWR VPWR sky130_ef_sc_hd__decap_12
XFILLER_0_88_121 VGND VGND VPWR VPWR sky130_ef_sc_hd__decap_12
XFILLER_0_16_41 VGND VGND VPWR VPWR sky130_ef_sc_hd__decap_12
XFILLER_0_88_165 VGND VGND VPWR VPWR sky130_ef_sc_hd__decap_12
XFILLER_0_16_85 VGND VGND VPWR VPWR sky130_ef_sc_hd__decap_12
XFILLER_0_17_405 VGND VGND VPWR VPWR sky130_ef_sc_hd__decap_12
XFILLER_0_57_541 VGND VGND VPWR VPWR sky130_ef_sc_hd__decap_12
XFILLER_0_57_585 VGND VGND VPWR VPWR sky130_ef_sc_hd__decap_12
XFILLER_0_17_449 VGND VGND VPWR VPWR sky130_ef_sc_hd__decap_12
XFILLER_0_72_533 VGND VGND VPWR VPWR sky130_ef_sc_hd__decap_12
XFILLER_0_4_321 VGND VGND VPWR VPWR sky130_ef_sc_hd__decap_12
XFILLER_0_32_419 VGND VGND VPWR VPWR sky130_fd_sc_hd__fill_1
XFILLER_0_12_121 VGND VGND VPWR VPWR sky130_ef_sc_hd__decap_12
XFILLER_0_4_365 VGND VGND VPWR VPWR sky130_ef_sc_hd__decap_12
XFILLER_0_12_165 VGND VGND VPWR VPWR sky130_ef_sc_hd__decap_12
XTAP_850 VGND VPWR sky130_fd_sc_hd__tapvpwrvgnd_1
XTAP_861 VGND VPWR sky130_fd_sc_hd__tapvpwrvgnd_1
XFILLER_0_57_81 VGND VGND VPWR VPWR sky130_ef_sc_hd__decap_12
XTAP_883 VGND VPWR sky130_fd_sc_hd__tapvpwrvgnd_1
XTAP_872 VGND VPWR sky130_fd_sc_hd__tapvpwrvgnd_1
XTAP_894 VGND VPWR sky130_fd_sc_hd__tapvpwrvgnd_1
XFILLER_0_67_305 VGND VGND VPWR VPWR sky130_ef_sc_hd__decap_12
XFILLER_0_67_349 VGND VGND VPWR VPWR sky130_ef_sc_hd__decap_12
XFILLER_0_75_393 VGND VGND VPWR VPWR sky130_ef_sc_hd__decap_12
XFILLER_0_90_363 VGND VGND VPWR VPWR sky130_fd_sc_hd__fill_1
XFILLER_0_7_181 VGND VGND VPWR VPWR sky130_ef_sc_hd__decap_12
XFILLER_0_35_279 VGND VGND VPWR VPWR sky130_fd_sc_hd__fill_1
XFILLER_0_31_441 VGND VGND VPWR VPWR sky130_fd_sc_hd__decap_6
Xoutput21 net21 VGND VGND VPWR VPWR scan_out[26] sky130_fd_sc_hd__clkbuf_4
Xoutput10 net10 VGND VGND VPWR VPWR scan_out[16] sky130_fd_sc_hd__clkbuf_4
Xoutput8 net8 VGND VGND VPWR VPWR scan_out[14] sky130_fd_sc_hd__clkbuf_4
Xoutput32 net32 VGND VGND VPWR VPWR scan_out[9] sky130_fd_sc_hd__clkbuf_4
XFILLER_0_31_485 VGND VGND VPWR VPWR sky130_ef_sc_hd__decap_12
XFILLER_0_101_362 VGND VGND VPWR VPWR sky130_fd_sc_hd__fill_2
XFILLER_0_98_485 VGND VGND VPWR VPWR sky130_ef_sc_hd__decap_12
XFILLER_0_53_39 VGND VGND VPWR VPWR sky130_ef_sc_hd__decap_12
XFILLER_0_85_113 VGND VGND VPWR VPWR sky130_ef_sc_hd__decap_12
XFILLER_0_39_541 VGND VGND VPWR VPWR sky130_ef_sc_hd__decap_12
XPHY_160 VGND VGND VPWR VPWR sky130_fd_sc_hd__decap_3
XFILLER_0_39_585 VGND VGND VPWR VPWR sky130_ef_sc_hd__decap_12
XPHY_193 VGND VGND VPWR VPWR sky130_fd_sc_hd__decap_3
XPHY_182 VGND VGND VPWR VPWR sky130_fd_sc_hd__decap_3
XPHY_171 VGND VGND VPWR VPWR sky130_fd_sc_hd__decap_3
XFILLER_0_54_533 VGND VGND VPWR VPWR sky130_ef_sc_hd__decap_12
XFILLER_0_14_419 VGND VGND VPWR VPWR sky130_fd_sc_hd__fill_1
XFILLER_0_41_205 VGND VGND VPWR VPWR sky130_ef_sc_hd__decap_12
XFILLER_0_81_385 VGND VGND VPWR VPWR sky130_fd_sc_hd__decap_6
XFILLER_0_41_249 VGND VGND VPWR VPWR sky130_ef_sc_hd__decap_12
XFILLER_0_1_335 VGND VGND VPWR VPWR sky130_fd_sc_hd__fill_1
XFILLER_0_27_51 VGND VGND VPWR VPWR sky130_fd_sc_hd__decap_4
XFILLER_0_89_441 VGND VGND VPWR VPWR sky130_fd_sc_hd__decap_6
XFILLER_0_49_305 VGND VGND VPWR VPWR sky130_ef_sc_hd__decap_12
XFILLER_0_89_485 VGND VGND VPWR VPWR sky130_ef_sc_hd__decap_12
XFILLER_0_49_349 VGND VGND VPWR VPWR sky130_ef_sc_hd__decap_12
XFILLER_0_91_105 VGND VGND VPWR VPWR sky130_fd_sc_hd__decap_6
XFILLER_0_91_149 VGND VGND VPWR VPWR sky130_ef_sc_hd__decap_12
XFILLER_0_57_393 VGND VGND VPWR VPWR sky130_ef_sc_hd__decap_12
XFILLER_0_94_3 VGND VGND VPWR VPWR sky130_ef_sc_hd__decap_12
XFILLER_0_17_279 VGND VGND VPWR VPWR sky130_fd_sc_hd__fill_1
XFILLER_0_72_363 VGND VGND VPWR VPWR sky130_fd_sc_hd__fill_1
XFILLER_0_60_525 VGND VGND VPWR VPWR sky130_fd_sc_hd__decap_6
XFILLER_0_13_441 VGND VGND VPWR VPWR sky130_fd_sc_hd__decap_6
XFILLER_0_60_569 VGND VGND VPWR VPWR sky130_ef_sc_hd__decap_12
XFILLER_0_13_485 VGND VGND VPWR VPWR sky130_ef_sc_hd__decap_12
XFILLER_0_4_195 VGND VGND VPWR VPWR sky130_fd_sc_hd__fill_1