*SPEF "ieee 1481-1999"
*DESIGN "scan_chain"
*DATE "11:11:11 Fri 11 11, 1111"
*VENDOR "OpenRCX"
*PROGRAM "Parallel Extraction"
*VERSION "1.0"
*DESIGN_FLOW "NAME_SCOPE LOCAL" "PIN_CAP NONE"
*DIVIDER /
*DELIMITER :
*BUS_DELIMITER []
*T_UNIT 1 NS
*C_UNIT 1 PF
*R_UNIT 1 OHM
*L_UNIT 1 HENRY

*NAME_MAP
*3 clk
*4 reset
*5 scan_in
*6 scan_out[0]
*7 scan_out[10]
*8 scan_out[11]
*9 scan_out[12]
*10 scan_out[13]
*11 scan_out[14]
*12 scan_out[15]
*13 scan_out[16]
*14 scan_out[17]
*15 scan_out[18]
*16 scan_out[19]
*17 scan_out[1]
*18 scan_out[20]
*19 scan_out[21]
*20 scan_out[22]
*21 scan_out[23]
*22 scan_out[24]
*23 scan_out[25]
*24 scan_out[26]
*25 scan_out[27]
*26 scan_out[28]
*27 scan_out[29]
*28 scan_out[2]
*29 scan_out[3]
*30 scan_out[4]
*31 scan_out[5]
*32 scan_out[6]
*33 scan_out[7]
*34 scan_out[8]
*35 scan_out[9]
*36 _000_
*37 _001_
*38 _002_
*39 _003_
*40 _004_
*41 _005_
*42 _006_
*43 _007_
*44 _008_
*45 _009_
*46 _010_
*47 _011_
*48 _012_
*49 _013_
*50 _014_
*51 _015_
*52 _016_
*53 _017_
*54 _018_
*55 _019_
*56 _020_
*57 _021_
*58 _022_
*59 _023_
*60 _024_
*61 _025_
*62 _026_
*63 _027_
*64 _028_
*65 _029_
*66 _030_
*67 _031_
*68 _032_
*69 _033_
*70 _034_
*71 _035_
*72 _036_
*73 _037_
*74 _038_
*75 _039_
*76 _040_
*77 _041_
*78 _042_
*79 _043_
*80 _044_
*81 _045_
*82 _046_
*83 _047_
*84 _048_
*85 _049_
*86 _050_
*87 _051_
*88 _052_
*89 _053_
*90 _054_
*91 _055_
*92 _056_
*93 _057_
*94 _058_
*95 _059_
*96 _060_
*97 _061_
*98 _062_
*99 clknet_0_clk
*100 clknet_2_0__leaf_clk
*101 clknet_2_1__leaf_clk
*102 clknet_2_2__leaf_clk
*103 clknet_2_3__leaf_clk
*104 net1
*105 net10
*106 net11
*107 net12
*108 net13
*109 net14
*110 net15
*111 net16
*112 net17
*113 net18
*114 net19
*115 net2
*116 net20
*117 net21
*118 net22
*119 net23
*120 net24
*121 net25
*122 net26
*123 net27
*124 net28
*125 net29
*126 net3
*127 net30
*128 net31
*129 net32
*130 net33
*131 net34
*132 net35
*133 net36
*134 net37
*135 net38
*136 net39
*137 net4
*138 net40
*139 net41
*140 net42
*141 net43
*142 net5
*143 net6
*144 net7
*145 net8
*146 net9
*147 FILLER_0_0_109
*148 FILLER_0_0_113
*149 FILLER_0_0_125
*150 FILLER_0_0_137
*151 FILLER_0_0_141
*152 FILLER_0_0_15
*153 FILLER_0_0_153
*154 FILLER_0_0_165
*155 FILLER_0_0_169
*156 FILLER_0_0_181
*157 FILLER_0_0_193
*158 FILLER_0_0_197
*159 FILLER_0_0_209
*160 FILLER_0_0_221
*161 FILLER_0_0_225
*162 FILLER_0_0_237
*163 FILLER_0_0_249
*164 FILLER_0_0_253
*165 FILLER_0_0_265
*166 FILLER_0_0_27
*167 FILLER_0_0_277
*168 FILLER_0_0_281
*169 FILLER_0_0_29
*170 FILLER_0_0_293
*171 FILLER_0_0_3
*172 FILLER_0_0_305
*173 FILLER_0_0_309
*174 FILLER_0_0_321
*175 FILLER_0_0_333
*176 FILLER_0_0_337
*177 FILLER_0_0_349
*178 FILLER_0_0_361
*179 FILLER_0_0_365
*180 FILLER_0_0_377
*181 FILLER_0_0_389
*182 FILLER_0_0_393
*183 FILLER_0_0_405
*184 FILLER_0_0_41
*185 FILLER_0_0_417
*186 FILLER_0_0_421
*187 FILLER_0_0_433
*188 FILLER_0_0_445
*189 FILLER_0_0_449
*190 FILLER_0_0_461
*191 FILLER_0_0_473
*192 FILLER_0_0_477
*193 FILLER_0_0_489
*194 FILLER_0_0_501
*195 FILLER_0_0_505
*196 FILLER_0_0_517
*197 FILLER_0_0_529
*198 FILLER_0_0_53
*199 FILLER_0_0_533
*200 FILLER_0_0_545
*201 FILLER_0_0_557
*202 FILLER_0_0_561
*203 FILLER_0_0_57
*204 FILLER_0_0_573
*205 FILLER_0_0_585
*206 FILLER_0_0_589
*207 FILLER_0_0_601
*208 FILLER_0_0_613
*209 FILLER_0_0_617
*210 FILLER_0_0_69
*211 FILLER_0_0_81
*212 FILLER_0_0_85
*213 FILLER_0_0_97
*214 FILLER_0_100_109
*215 FILLER_0_100_121
*216 FILLER_0_100_133
*217 FILLER_0_100_139
*218 FILLER_0_100_141
*219 FILLER_0_100_15
*220 FILLER_0_100_153
*221 FILLER_0_100_190
*222 FILLER_0_100_197
*223 FILLER_0_100_209
*224 FILLER_0_100_230
*225 FILLER_0_100_246
*226 FILLER_0_100_253
*227 FILLER_0_100_265
*228 FILLER_0_100_27
*229 FILLER_0_100_273
*230 FILLER_0_100_29
*231 FILLER_0_100_295
*232 FILLER_0_100_3
*233 FILLER_0_100_307
*234 FILLER_0_100_309
*235 FILLER_0_100_321
*236 FILLER_0_100_333
*237 FILLER_0_100_345
*238 FILLER_0_100_357
*239 FILLER_0_100_363
*240 FILLER_0_100_365
*241 FILLER_0_100_377
*242 FILLER_0_100_389
*243 FILLER_0_100_401
*244 FILLER_0_100_41
*245 FILLER_0_100_413
*246 FILLER_0_100_419
*247 FILLER_0_100_421
*248 FILLER_0_100_433
*249 FILLER_0_100_445
*250 FILLER_0_100_457
*251 FILLER_0_100_469
*252 FILLER_0_100_475
*253 FILLER_0_100_477
*254 FILLER_0_100_489
*255 FILLER_0_100_501
*256 FILLER_0_100_513
*257 FILLER_0_100_525
*258 FILLER_0_100_53
*259 FILLER_0_100_531
*260 FILLER_0_100_533
*261 FILLER_0_100_545
*262 FILLER_0_100_568
*263 FILLER_0_100_580
*264 FILLER_0_100_589
*265 FILLER_0_100_601
*266 FILLER_0_100_613
*267 FILLER_0_100_65
*268 FILLER_0_100_77
*269 FILLER_0_100_83
*270 FILLER_0_100_85
*271 FILLER_0_100_97
*272 FILLER_0_101_103
*273 FILLER_0_101_110
*274 FILLER_0_101_113
*275 FILLER_0_101_13
*276 FILLER_0_101_131
*277 FILLER_0_101_139
*278 FILLER_0_101_141
*279 FILLER_0_101_145
*280 FILLER_0_101_152
*281 FILLER_0_101_164
*282 FILLER_0_101_175
*283 FILLER_0_101_187
*284 FILLER_0_101_19
*285 FILLER_0_101_194
*286 FILLER_0_101_197
*287 FILLER_0_101_215
*288 FILLER_0_101_223
*289 FILLER_0_101_225
*290 FILLER_0_101_229
*291 FILLER_0_101_236
*292 FILLER_0_101_248
*293 FILLER_0_101_259
*294 FILLER_0_101_26
*295 FILLER_0_101_271
*296 FILLER_0_101_278
*297 FILLER_0_101_281
*298 FILLER_0_101_29
*299 FILLER_0_101_299
*300 FILLER_0_101_307
*301 FILLER_0_101_309
*302 FILLER_0_101_313
*303 FILLER_0_101_320
*304 FILLER_0_101_332
*305 FILLER_0_101_343
*306 FILLER_0_101_355
*307 FILLER_0_101_362
*308 FILLER_0_101_365
*309 FILLER_0_101_383
*310 FILLER_0_101_391
*311 FILLER_0_101_393
*312 FILLER_0_101_397
*313 FILLER_0_101_404
*314 FILLER_0_101_416
*315 FILLER_0_101_427
*316 FILLER_0_101_439
*317 FILLER_0_101_446
*318 FILLER_0_101_449
*319 FILLER_0_101_467
*320 FILLER_0_101_47
*321 FILLER_0_101_475
*322 FILLER_0_101_477
*323 FILLER_0_101_481
*324 FILLER_0_101_488
*325 FILLER_0_101_500
*326 FILLER_0_101_511
*327 FILLER_0_101_523
*328 FILLER_0_101_530
*329 FILLER_0_101_533
*330 FILLER_0_101_55
*331 FILLER_0_101_551
*332 FILLER_0_101_559
*333 FILLER_0_101_561
*334 FILLER_0_101_565
*335 FILLER_0_101_57
*336 FILLER_0_101_572
*337 FILLER_0_101_584
*338 FILLER_0_101_595
*339 FILLER_0_101_607
*340 FILLER_0_101_61
*341 FILLER_0_101_614
*342 FILLER_0_101_617
*343 FILLER_0_101_68
*344 FILLER_0_101_80
*345 FILLER_0_101_91
*346 FILLER_0_10_109
*347 FILLER_0_10_121
*348 FILLER_0_10_133
*349 FILLER_0_10_139
*350 FILLER_0_10_141
*351 FILLER_0_10_15
*352 FILLER_0_10_153
*353 FILLER_0_10_165
*354 FILLER_0_10_177
*355 FILLER_0_10_189
*356 FILLER_0_10_195
*357 FILLER_0_10_197
*358 FILLER_0_10_209
*359 FILLER_0_10_221
*360 FILLER_0_10_233
*361 FILLER_0_10_245
*362 FILLER_0_10_251
*363 FILLER_0_10_253
*364 FILLER_0_10_265
*365 FILLER_0_10_27
*366 FILLER_0_10_277
*367 FILLER_0_10_289
*368 FILLER_0_10_29
*369 FILLER_0_10_3
*370 FILLER_0_10_301
*371 FILLER_0_10_307
*372 FILLER_0_10_309
*373 FILLER_0_10_321
*374 FILLER_0_10_333
*375 FILLER_0_10_345
*376 FILLER_0_10_357
*377 FILLER_0_10_363
*378 FILLER_0_10_365
*379 FILLER_0_10_377
*380 FILLER_0_10_389
*381 FILLER_0_10_401
*382 FILLER_0_10_41
*383 FILLER_0_10_413
*384 FILLER_0_10_419
*385 FILLER_0_10_421
*386 FILLER_0_10_433
*387 FILLER_0_10_445
*388 FILLER_0_10_457
*389 FILLER_0_10_469
*390 FILLER_0_10_475
*391 FILLER_0_10_477
*392 FILLER_0_10_489
*393 FILLER_0_10_501
*394 FILLER_0_10_513
*395 FILLER_0_10_525
*396 FILLER_0_10_53
*397 FILLER_0_10_531
*398 FILLER_0_10_533
*399 FILLER_0_10_545
*400 FILLER_0_10_557
*401 FILLER_0_10_569
*402 FILLER_0_10_581
*403 FILLER_0_10_587
*404 FILLER_0_10_589
*405 FILLER_0_10_601
*406 FILLER_0_10_613
*407 FILLER_0_10_65
*408 FILLER_0_10_77
*409 FILLER_0_10_83
*410 FILLER_0_10_85
*411 FILLER_0_10_97
*412 FILLER_0_11_105
*413 FILLER_0_11_111
*414 FILLER_0_11_113
*415 FILLER_0_11_125
*416 FILLER_0_11_137
*417 FILLER_0_11_149
*418 FILLER_0_11_15
*419 FILLER_0_11_161
*420 FILLER_0_11_167
*421 FILLER_0_11_169
*422 FILLER_0_11_181
*423 FILLER_0_11_193
*424 FILLER_0_11_205
*425 FILLER_0_11_217
*426 FILLER_0_11_223
*427 FILLER_0_11_225
*428 FILLER_0_11_237
*429 FILLER_0_11_249
*430 FILLER_0_11_261
*431 FILLER_0_11_27
*432 FILLER_0_11_273
*433 FILLER_0_11_279
*434 FILLER_0_11_281
*435 FILLER_0_11_293
*436 FILLER_0_11_3
*437 FILLER_0_11_305
*438 FILLER_0_11_317
*439 FILLER_0_11_329
*440 FILLER_0_11_335
*441 FILLER_0_11_337
*442 FILLER_0_11_349
*443 FILLER_0_11_361
*444 FILLER_0_11_373
*445 FILLER_0_11_385
*446 FILLER_0_11_39
*447 FILLER_0_11_391
*448 FILLER_0_11_393
*449 FILLER_0_11_405
*450 FILLER_0_11_417
*451 FILLER_0_11_429
*452 FILLER_0_11_441
*453 FILLER_0_11_447
*454 FILLER_0_11_449
*455 FILLER_0_11_461
*456 FILLER_0_11_473
*457 FILLER_0_11_485
*458 FILLER_0_11_497
*459 FILLER_0_11_503
*460 FILLER_0_11_505
*461 FILLER_0_11_51
*462 FILLER_0_11_517
*463 FILLER_0_11_529
*464 FILLER_0_11_541
*465 FILLER_0_11_55
*466 FILLER_0_11_553
*467 FILLER_0_11_559
*468 FILLER_0_11_561
*469 FILLER_0_11_57
*470 FILLER_0_11_573
*471 FILLER_0_11_585
*472 FILLER_0_11_597
*473 FILLER_0_11_609
*474 FILLER_0_11_615
*475 FILLER_0_11_617
*476 FILLER_0_11_69
*477 FILLER_0_11_81
*478 FILLER_0_11_93
*479 FILLER_0_12_109
*480 FILLER_0_12_121
*481 FILLER_0_12_133
*482 FILLER_0_12_139
*483 FILLER_0_12_141
*484 FILLER_0_12_15
*485 FILLER_0_12_153
*486 FILLER_0_12_165
*487 FILLER_0_12_177
*488 FILLER_0_12_189
*489 FILLER_0_12_195
*490 FILLER_0_12_197
*491 FILLER_0_12_209
*492 FILLER_0_12_221
*493 FILLER_0_12_233
*494 FILLER_0_12_245
*495 FILLER_0_12_251
*496 FILLER_0_12_253
*497 FILLER_0_12_265
*498 FILLER_0_12_27
*499 FILLER_0_12_277
*500 FILLER_0_12_289
*501 FILLER_0_12_29
*502 FILLER_0_12_3
*503 FILLER_0_12_301
*504 FILLER_0_12_307
*505 FILLER_0_12_309
*506 FILLER_0_12_321
*507 FILLER_0_12_333
*508 FILLER_0_12_345
*509 FILLER_0_12_357
*510 FILLER_0_12_363
*511 FILLER_0_12_365
*512 FILLER_0_12_377
*513 FILLER_0_12_389
*514 FILLER_0_12_401
*515 FILLER_0_12_41
*516 FILLER_0_12_413
*517 FILLER_0_12_419
*518 FILLER_0_12_421
*519 FILLER_0_12_433
*520 FILLER_0_12_445
*521 FILLER_0_12_457
*522 FILLER_0_12_469
*523 FILLER_0_12_475
*524 FILLER_0_12_477
*525 FILLER_0_12_489
*526 FILLER_0_12_501
*527 FILLER_0_12_513
*528 FILLER_0_12_525
*529 FILLER_0_12_53
*530 FILLER_0_12_531
*531 FILLER_0_12_533
*532 FILLER_0_12_545
*533 FILLER_0_12_557
*534 FILLER_0_12_569
*535 FILLER_0_12_581
*536 FILLER_0_12_587
*537 FILLER_0_12_589
*538 FILLER_0_12_601
*539 FILLER_0_12_613
*540 FILLER_0_12_65
*541 FILLER_0_12_77
*542 FILLER_0_12_83
*543 FILLER_0_12_85
*544 FILLER_0_12_97
*545 FILLER_0_13_105
*546 FILLER_0_13_111
*547 FILLER_0_13_113
*548 FILLER_0_13_125
*549 FILLER_0_13_137
*550 FILLER_0_13_149
*551 FILLER_0_13_15
*552 FILLER_0_13_161
*553 FILLER_0_13_167
*554 FILLER_0_13_169
*555 FILLER_0_13_181
*556 FILLER_0_13_193
*557 FILLER_0_13_205
*558 FILLER_0_13_217
*559 FILLER_0_13_223
*560 FILLER_0_13_225
*561 FILLER_0_13_237
*562 FILLER_0_13_249
*563 FILLER_0_13_261
*564 FILLER_0_13_27
*565 FILLER_0_13_273
*566 FILLER_0_13_279
*567 FILLER_0_13_281
*568 FILLER_0_13_293
*569 FILLER_0_13_3
*570 FILLER_0_13_305
*571 FILLER_0_13_317
*572 FILLER_0_13_329
*573 FILLER_0_13_335
*574 FILLER_0_13_337
*575 FILLER_0_13_349
*576 FILLER_0_13_361
*577 FILLER_0_13_373
*578 FILLER_0_13_385
*579 FILLER_0_13_39
*580 FILLER_0_13_391
*581 FILLER_0_13_393
*582 FILLER_0_13_405
*583 FILLER_0_13_417
*584 FILLER_0_13_429
*585 FILLER_0_13_441
*586 FILLER_0_13_447
*587 FILLER_0_13_449
*588 FILLER_0_13_461
*589 FILLER_0_13_473
*590 FILLER_0_13_485
*591 FILLER_0_13_497
*592 FILLER_0_13_503
*593 FILLER_0_13_505
*594 FILLER_0_13_51
*595 FILLER_0_13_517
*596 FILLER_0_13_529
*597 FILLER_0_13_541
*598 FILLER_0_13_55
*599 FILLER_0_13_553
*600 FILLER_0_13_559
*601 FILLER_0_13_561
*602 FILLER_0_13_57
*603 FILLER_0_13_573
*604 FILLER_0_13_585
*605 FILLER_0_13_597
*606 FILLER_0_13_609
*607 FILLER_0_13_615
*608 FILLER_0_13_617
*609 FILLER_0_13_69
*610 FILLER_0_13_81
*611 FILLER_0_13_93
*612 FILLER_0_14_109
*613 FILLER_0_14_121
*614 FILLER_0_14_133
*615 FILLER_0_14_139
*616 FILLER_0_14_141
*617 FILLER_0_14_15
*618 FILLER_0_14_153
*619 FILLER_0_14_165
*620 FILLER_0_14_177
*621 FILLER_0_14_189
*622 FILLER_0_14_195
*623 FILLER_0_14_197
*624 FILLER_0_14_209
*625 FILLER_0_14_221
*626 FILLER_0_14_233
*627 FILLER_0_14_245
*628 FILLER_0_14_251
*629 FILLER_0_14_253
*630 FILLER_0_14_265
*631 FILLER_0_14_27
*632 FILLER_0_14_277
*633 FILLER_0_14_289
*634 FILLER_0_14_29
*635 FILLER_0_14_3
*636 FILLER_0_14_301
*637 FILLER_0_14_307
*638 FILLER_0_14_309
*639 FILLER_0_14_321
*640 FILLER_0_14_333
*641 FILLER_0_14_345
*642 FILLER_0_14_357
*643 FILLER_0_14_363
*644 FILLER_0_14_365
*645 FILLER_0_14_377
*646 FILLER_0_14_389
*647 FILLER_0_14_401
*648 FILLER_0_14_41
*649 FILLER_0_14_413
*650 FILLER_0_14_419
*651 FILLER_0_14_421
*652 FILLER_0_14_433
*653 FILLER_0_14_445
*654 FILLER_0_14_457
*655 FILLER_0_14_469
*656 FILLER_0_14_475
*657 FILLER_0_14_477
*658 FILLER_0_14_489
*659 FILLER_0_14_501
*660 FILLER_0_14_513
*661 FILLER_0_14_525
*662 FILLER_0_14_53
*663 FILLER_0_14_531
*664 FILLER_0_14_533
*665 FILLER_0_14_545
*666 FILLER_0_14_557
*667 FILLER_0_14_569
*668 FILLER_0_14_581
*669 FILLER_0_14_587
*670 FILLER_0_14_589
*671 FILLER_0_14_601
*672 FILLER_0_14_613
*673 FILLER_0_14_65
*674 FILLER_0_14_77
*675 FILLER_0_14_83
*676 FILLER_0_14_85
*677 FILLER_0_14_97
*678 FILLER_0_15_105
*679 FILLER_0_15_111
*680 FILLER_0_15_113
*681 FILLER_0_15_125
*682 FILLER_0_15_137
*683 FILLER_0_15_149
*684 FILLER_0_15_15
*685 FILLER_0_15_161
*686 FILLER_0_15_167
*687 FILLER_0_15_169
*688 FILLER_0_15_181
*689 FILLER_0_15_193
*690 FILLER_0_15_205
*691 FILLER_0_15_217
*692 FILLER_0_15_223
*693 FILLER_0_15_225
*694 FILLER_0_15_237
*695 FILLER_0_15_249
*696 FILLER_0_15_261
*697 FILLER_0_15_27
*698 FILLER_0_15_273
*699 FILLER_0_15_279
*700 FILLER_0_15_281
*701 FILLER_0_15_293
*702 FILLER_0_15_3
*703 FILLER_0_15_305
*704 FILLER_0_15_317
*705 FILLER_0_15_329
*706 FILLER_0_15_335
*707 FILLER_0_15_337
*708 FILLER_0_15_349
*709 FILLER_0_15_361
*710 FILLER_0_15_373
*711 FILLER_0_15_385
*712 FILLER_0_15_39
*713 FILLER_0_15_391
*714 FILLER_0_15_393
*715 FILLER_0_15_405
*716 FILLER_0_15_417
*717 FILLER_0_15_429
*718 FILLER_0_15_441
*719 FILLER_0_15_447
*720 FILLER_0_15_449
*721 FILLER_0_15_461
*722 FILLER_0_15_473
*723 FILLER_0_15_485
*724 FILLER_0_15_497
*725 FILLER_0_15_503
*726 FILLER_0_15_505
*727 FILLER_0_15_51
*728 FILLER_0_15_517
*729 FILLER_0_15_529
*730 FILLER_0_15_541
*731 FILLER_0_15_55
*732 FILLER_0_15_553
*733 FILLER_0_15_559
*734 FILLER_0_15_561
*735 FILLER_0_15_57
*736 FILLER_0_15_573
*737 FILLER_0_15_585
*738 FILLER_0_15_597
*739 FILLER_0_15_609
*740 FILLER_0_15_615
*741 FILLER_0_15_617
*742 FILLER_0_15_69
*743 FILLER_0_15_81
*744 FILLER_0_15_93
*745 FILLER_0_16_109
*746 FILLER_0_16_121
*747 FILLER_0_16_133
*748 FILLER_0_16_139
*749 FILLER_0_16_141
*750 FILLER_0_16_15
*751 FILLER_0_16_153
*752 FILLER_0_16_165
*753 FILLER_0_16_177
*754 FILLER_0_16_189
*755 FILLER_0_16_195
*756 FILLER_0_16_197
*757 FILLER_0_16_209
*758 FILLER_0_16_221
*759 FILLER_0_16_233
*760 FILLER_0_16_245
*761 FILLER_0_16_251
*762 FILLER_0_16_253
*763 FILLER_0_16_265
*764 FILLER_0_16_27
*765 FILLER_0_16_277
*766 FILLER_0_16_289
*767 FILLER_0_16_29
*768 FILLER_0_16_3
*769 FILLER_0_16_301
*770 FILLER_0_16_307
*771 FILLER_0_16_309
*772 FILLER_0_16_321
*773 FILLER_0_16_333
*774 FILLER_0_16_345
*775 FILLER_0_16_357
*776 FILLER_0_16_363
*777 FILLER_0_16_365
*778 FILLER_0_16_377
*779 FILLER_0_16_389
*780 FILLER_0_16_401
*781 FILLER_0_16_41
*782 FILLER_0_16_413
*783 FILLER_0_16_419
*784 FILLER_0_16_421
*785 FILLER_0_16_433
*786 FILLER_0_16_445
*787 FILLER_0_16_457
*788 FILLER_0_16_469
*789 FILLER_0_16_475
*790 FILLER_0_16_477
*791 FILLER_0_16_489
*792 FILLER_0_16_501
*793 FILLER_0_16_513
*794 FILLER_0_16_525
*795 FILLER_0_16_53
*796 FILLER_0_16_531
*797 FILLER_0_16_533
*798 FILLER_0_16_545
*799 FILLER_0_16_557
*800 FILLER_0_16_569
*801 FILLER_0_16_581
*802 FILLER_0_16_587
*803 FILLER_0_16_589
*804 FILLER_0_16_601
*805 FILLER_0_16_613
*806 FILLER_0_16_65
*807 FILLER_0_16_77
*808 FILLER_0_16_83
*809 FILLER_0_16_85
*810 FILLER_0_16_97
*811 FILLER_0_17_105
*812 FILLER_0_17_111
*813 FILLER_0_17_113
*814 FILLER_0_17_125
*815 FILLER_0_17_137
*816 FILLER_0_17_149
*817 FILLER_0_17_15
*818 FILLER_0_17_161
*819 FILLER_0_17_167
*820 FILLER_0_17_169
*821 FILLER_0_17_181
*822 FILLER_0_17_193
*823 FILLER_0_17_205
*824 FILLER_0_17_217
*825 FILLER_0_17_223
*826 FILLER_0_17_225
*827 FILLER_0_17_237
*828 FILLER_0_17_249
*829 FILLER_0_17_261
*830 FILLER_0_17_27
*831 FILLER_0_17_273
*832 FILLER_0_17_279
*833 FILLER_0_17_281
*834 FILLER_0_17_293
*835 FILLER_0_17_3
*836 FILLER_0_17_305
*837 FILLER_0_17_317
*838 FILLER_0_17_329
*839 FILLER_0_17_335
*840 FILLER_0_17_337
*841 FILLER_0_17_349
*842 FILLER_0_17_361
*843 FILLER_0_17_373
*844 FILLER_0_17_385
*845 FILLER_0_17_39
*846 FILLER_0_17_391
*847 FILLER_0_17_393
*848 FILLER_0_17_405
*849 FILLER_0_17_417
*850 FILLER_0_17_429
*851 FILLER_0_17_441
*852 FILLER_0_17_447
*853 FILLER_0_17_449
*854 FILLER_0_17_461
*855 FILLER_0_17_473
*856 FILLER_0_17_485
*857 FILLER_0_17_497
*858 FILLER_0_17_503
*859 FILLER_0_17_505
*860 FILLER_0_17_51
*861 FILLER_0_17_517
*862 FILLER_0_17_529
*863 FILLER_0_17_541
*864 FILLER_0_17_55
*865 FILLER_0_17_553
*866 FILLER_0_17_559
*867 FILLER_0_17_561
*868 FILLER_0_17_57
*869 FILLER_0_17_573
*870 FILLER_0_17_585
*871 FILLER_0_17_597
*872 FILLER_0_17_609
*873 FILLER_0_17_615
*874 FILLER_0_17_617
*875 FILLER_0_17_69
*876 FILLER_0_17_81
*877 FILLER_0_17_93
*878 FILLER_0_18_109
*879 FILLER_0_18_121
*880 FILLER_0_18_133
*881 FILLER_0_18_139
*882 FILLER_0_18_141
*883 FILLER_0_18_15
*884 FILLER_0_18_153
*885 FILLER_0_18_165
*886 FILLER_0_18_177
*887 FILLER_0_18_189
*888 FILLER_0_18_195
*889 FILLER_0_18_197
*890 FILLER_0_18_209
*891 FILLER_0_18_221
*892 FILLER_0_18_233
*893 FILLER_0_18_245
*894 FILLER_0_18_251
*895 FILLER_0_18_253
*896 FILLER_0_18_265
*897 FILLER_0_18_27
*898 FILLER_0_18_277
*899 FILLER_0_18_289
*900 FILLER_0_18_29
*901 FILLER_0_18_3
*902 FILLER_0_18_301
*903 FILLER_0_18_307
*904 FILLER_0_18_309
*905 FILLER_0_18_321
*906 FILLER_0_18_333
*907 FILLER_0_18_345
*908 FILLER_0_18_357
*909 FILLER_0_18_363
*910 FILLER_0_18_365
*911 FILLER_0_18_377
*912 FILLER_0_18_389
*913 FILLER_0_18_401
*914 FILLER_0_18_41
*915 FILLER_0_18_413
*916 FILLER_0_18_419
*917 FILLER_0_18_421
*918 FILLER_0_18_433
*919 FILLER_0_18_445
*920 FILLER_0_18_457
*921 FILLER_0_18_469
*922 FILLER_0_18_475
*923 FILLER_0_18_477
*924 FILLER_0_18_489
*925 FILLER_0_18_501
*926 FILLER_0_18_513
*927 FILLER_0_18_525
*928 FILLER_0_18_53
*929 FILLER_0_18_531
*930 FILLER_0_18_533
*931 FILLER_0_18_545
*932 FILLER_0_18_557
*933 FILLER_0_18_569
*934 FILLER_0_18_581
*935 FILLER_0_18_587
*936 FILLER_0_18_589
*937 FILLER_0_18_601
*938 FILLER_0_18_613
*939 FILLER_0_18_65
*940 FILLER_0_18_77
*941 FILLER_0_18_83
*942 FILLER_0_18_85
*943 FILLER_0_18_97
*944 FILLER_0_19_105
*945 FILLER_0_19_111
*946 FILLER_0_19_113
*947 FILLER_0_19_125
*948 FILLER_0_19_137
*949 FILLER_0_19_149
*950 FILLER_0_19_15
*951 FILLER_0_19_161
*952 FILLER_0_19_167
*953 FILLER_0_19_169
*954 FILLER_0_19_181
*955 FILLER_0_19_193
*956 FILLER_0_19_205
*957 FILLER_0_19_217
*958 FILLER_0_19_223
*959 FILLER_0_19_225
*960 FILLER_0_19_237
*961 FILLER_0_19_249
*962 FILLER_0_19_261
*963 FILLER_0_19_27
*964 FILLER_0_19_273
*965 FILLER_0_19_279
*966 FILLER_0_19_281
*967 FILLER_0_19_293
*968 FILLER_0_19_3
*969 FILLER_0_19_305
*970 FILLER_0_19_317
*971 FILLER_0_19_329
*972 FILLER_0_19_335
*973 FILLER_0_19_337
*974 FILLER_0_19_349
*975 FILLER_0_19_361
*976 FILLER_0_19_373
*977 FILLER_0_19_385
*978 FILLER_0_19_39
*979 FILLER_0_19_391
*980 FILLER_0_19_393
*981 FILLER_0_19_405
*982 FILLER_0_19_417
*983 FILLER_0_19_429
*984 FILLER_0_19_441
*985 FILLER_0_19_447
*986 FILLER_0_19_449
*987 FILLER_0_19_461
*988 FILLER_0_19_473
*989 FILLER_0_19_485
*990 FILLER_0_19_497
*991 FILLER_0_19_503
*992 FILLER_0_19_505
*993 FILLER_0_19_51
*994 FILLER_0_19_517
*995 FILLER_0_19_529
*996 FILLER_0_19_541
*997 FILLER_0_19_55
*998 FILLER_0_19_553
*999 FILLER_0_19_559
*1000 FILLER_0_19_561
*1001 FILLER_0_19_57
*1002 FILLER_0_19_573
*1003 FILLER_0_19_585
*1004 FILLER_0_19_597
*1005 FILLER_0_19_609
*1006 FILLER_0_19_615
*1007 FILLER_0_19_617
*1008 FILLER_0_19_69
*1009 FILLER_0_19_81
*1010 FILLER_0_19_93
*1011 FILLER_0_1_105
*1012 FILLER_0_1_111
*1013 FILLER_0_1_113
*1014 FILLER_0_1_125
*1015 FILLER_0_1_137
*1016 FILLER_0_1_149
*1017 FILLER_0_1_15
*1018 FILLER_0_1_161
*1019 FILLER_0_1_167
*1020 FILLER_0_1_169
*1021 FILLER_0_1_181
*1022 FILLER_0_1_193
*1023 FILLER_0_1_205
*1024 FILLER_0_1_217
*1025 FILLER_0_1_223
*1026 FILLER_0_1_225
*1027 FILLER_0_1_237
*1028 FILLER_0_1_249
*1029 FILLER_0_1_261
*1030 FILLER_0_1_27
*1031 FILLER_0_1_273
*1032 FILLER_0_1_279
*1033 FILLER_0_1_281
*1034 FILLER_0_1_293
*1035 FILLER_0_1_3
*1036 FILLER_0_1_305
*1037 FILLER_0_1_317
*1038 FILLER_0_1_329
*1039 FILLER_0_1_335
*1040 FILLER_0_1_337
*1041 FILLER_0_1_349
*1042 FILLER_0_1_361
*1043 FILLER_0_1_373
*1044 FILLER_0_1_385
*1045 FILLER_0_1_39
*1046 FILLER_0_1_391
*1047 FILLER_0_1_393
*1048 FILLER_0_1_405
*1049 FILLER_0_1_417
*1050 FILLER_0_1_429
*1051 FILLER_0_1_441
*1052 FILLER_0_1_447
*1053 FILLER_0_1_449
*1054 FILLER_0_1_461
*1055 FILLER_0_1_473
*1056 FILLER_0_1_485
*1057 FILLER_0_1_497
*1058 FILLER_0_1_503
*1059 FILLER_0_1_505
*1060 FILLER_0_1_51
*1061 FILLER_0_1_517
*1062 FILLER_0_1_529
*1063 FILLER_0_1_541
*1064 FILLER_0_1_55
*1065 FILLER_0_1_553
*1066 FILLER_0_1_559
*1067 FILLER_0_1_561
*1068 FILLER_0_1_57
*1069 FILLER_0_1_573
*1070 FILLER_0_1_585
*1071 FILLER_0_1_597
*1072 FILLER_0_1_609
*1073 FILLER_0_1_615
*1074 FILLER_0_1_617
*1075 FILLER_0_1_69
*1076 FILLER_0_1_81
*1077 FILLER_0_1_93
*1078 FILLER_0_20_109
*1079 FILLER_0_20_121
*1080 FILLER_0_20_133
*1081 FILLER_0_20_139
*1082 FILLER_0_20_141
*1083 FILLER_0_20_15
*1084 FILLER_0_20_153
*1085 FILLER_0_20_165
*1086 FILLER_0_20_177
*1087 FILLER_0_20_189
*1088 FILLER_0_20_195
*1089 FILLER_0_20_197
*1090 FILLER_0_20_209
*1091 FILLER_0_20_221
*1092 FILLER_0_20_233
*1093 FILLER_0_20_245
*1094 FILLER_0_20_251
*1095 FILLER_0_20_253
*1096 FILLER_0_20_265
*1097 FILLER_0_20_27
*1098 FILLER_0_20_277
*1099 FILLER_0_20_289
*1100 FILLER_0_20_29
*1101 FILLER_0_20_3
*1102 FILLER_0_20_301
*1103 FILLER_0_20_307
*1104 FILLER_0_20_309
*1105 FILLER_0_20_321
*1106 FILLER_0_20_333
*1107 FILLER_0_20_345
*1108 FILLER_0_20_357
*1109 FILLER_0_20_363
*1110 FILLER_0_20_365
*1111 FILLER_0_20_377
*1112 FILLER_0_20_389
*1113 FILLER_0_20_401
*1114 FILLER_0_20_41
*1115 FILLER_0_20_413
*1116 FILLER_0_20_419
*1117 FILLER_0_20_421
*1118 FILLER_0_20_433
*1119 FILLER_0_20_445
*1120 FILLER_0_20_457
*1121 FILLER_0_20_469
*1122 FILLER_0_20_475
*1123 FILLER_0_20_477
*1124 FILLER_0_20_489
*1125 FILLER_0_20_501
*1126 FILLER_0_20_513
*1127 FILLER_0_20_525
*1128 FILLER_0_20_53
*1129 FILLER_0_20_531
*1130 FILLER_0_20_533
*1131 FILLER_0_20_545
*1132 FILLER_0_20_557
*1133 FILLER_0_20_569
*1134 FILLER_0_20_581
*1135 FILLER_0_20_587
*1136 FILLER_0_20_589
*1137 FILLER_0_20_601
*1138 FILLER_0_20_613
*1139 FILLER_0_20_65
*1140 FILLER_0_20_77
*1141 FILLER_0_20_83
*1142 FILLER_0_20_85
*1143 FILLER_0_20_97
*1144 FILLER_0_21_105
*1145 FILLER_0_21_111
*1146 FILLER_0_21_113
*1147 FILLER_0_21_125
*1148 FILLER_0_21_137
*1149 FILLER_0_21_149
*1150 FILLER_0_21_15
*1151 FILLER_0_21_161
*1152 FILLER_0_21_167
*1153 FILLER_0_21_169
*1154 FILLER_0_21_181
*1155 FILLER_0_21_193
*1156 FILLER_0_21_205
*1157 FILLER_0_21_217
*1158 FILLER_0_21_223
*1159 FILLER_0_21_225
*1160 FILLER_0_21_237
*1161 FILLER_0_21_249
*1162 FILLER_0_21_261
*1163 FILLER_0_21_27
*1164 FILLER_0_21_273
*1165 FILLER_0_21_279
*1166 FILLER_0_21_281
*1167 FILLER_0_21_293
*1168 FILLER_0_21_3
*1169 FILLER_0_21_305
*1170 FILLER_0_21_317
*1171 FILLER_0_21_329
*1172 FILLER_0_21_335
*1173 FILLER_0_21_337
*1174 FILLER_0_21_349
*1175 FILLER_0_21_361
*1176 FILLER_0_21_373
*1177 FILLER_0_21_385
*1178 FILLER_0_21_39
*1179 FILLER_0_21_391
*1180 FILLER_0_21_393
*1181 FILLER_0_21_405
*1182 FILLER_0_21_417
*1183 FILLER_0_21_429
*1184 FILLER_0_21_441
*1185 FILLER_0_21_447
*1186 FILLER_0_21_449
*1187 FILLER_0_21_461
*1188 FILLER_0_21_473
*1189 FILLER_0_21_485
*1190 FILLER_0_21_497
*1191 FILLER_0_21_503
*1192 FILLER_0_21_505
*1193 FILLER_0_21_51
*1194 FILLER_0_21_517
*1195 FILLER_0_21_529
*1196 FILLER_0_21_541
*1197 FILLER_0_21_55
*1198 FILLER_0_21_553
*1199 FILLER_0_21_559
*1200 FILLER_0_21_561
*1201 FILLER_0_21_57
*1202 FILLER_0_21_573
*1203 FILLER_0_21_585
*1204 FILLER_0_21_597
*1205 FILLER_0_21_609
*1206 FILLER_0_21_615
*1207 FILLER_0_21_617
*1208 FILLER_0_21_69
*1209 FILLER_0_21_81
*1210 FILLER_0_21_93
*1211 FILLER_0_22_109
*1212 FILLER_0_22_121
*1213 FILLER_0_22_133
*1214 FILLER_0_22_139
*1215 FILLER_0_22_141
*1216 FILLER_0_22_15
*1217 FILLER_0_22_153
*1218 FILLER_0_22_165
*1219 FILLER_0_22_177
*1220 FILLER_0_22_189
*1221 FILLER_0_22_195
*1222 FILLER_0_22_197
*1223 FILLER_0_22_209
*1224 FILLER_0_22_221
*1225 FILLER_0_22_233
*1226 FILLER_0_22_245
*1227 FILLER_0_22_251
*1228 FILLER_0_22_253
*1229 FILLER_0_22_265
*1230 FILLER_0_22_27
*1231 FILLER_0_22_277
*1232 FILLER_0_22_289
*1233 FILLER_0_22_29
*1234 FILLER_0_22_3
*1235 FILLER_0_22_301
*1236 FILLER_0_22_307
*1237 FILLER_0_22_309
*1238 FILLER_0_22_321
*1239 FILLER_0_22_333
*1240 FILLER_0_22_345
*1241 FILLER_0_22_357
*1242 FILLER_0_22_363
*1243 FILLER_0_22_365
*1244 FILLER_0_22_377
*1245 FILLER_0_22_389
*1246 FILLER_0_22_401
*1247 FILLER_0_22_41
*1248 FILLER_0_22_413
*1249 FILLER_0_22_419
*1250 FILLER_0_22_421
*1251 FILLER_0_22_433
*1252 FILLER_0_22_445
*1253 FILLER_0_22_457
*1254 FILLER_0_22_469
*1255 FILLER_0_22_475
*1256 FILLER_0_22_477
*1257 FILLER_0_22_489
*1258 FILLER_0_22_501
*1259 FILLER_0_22_513
*1260 FILLER_0_22_525
*1261 FILLER_0_22_53
*1262 FILLER_0_22_531
*1263 FILLER_0_22_533
*1264 FILLER_0_22_545
*1265 FILLER_0_22_557
*1266 FILLER_0_22_569
*1267 FILLER_0_22_581
*1268 FILLER_0_22_587
*1269 FILLER_0_22_589
*1270 FILLER_0_22_601
*1271 FILLER_0_22_613
*1272 FILLER_0_22_65
*1273 FILLER_0_22_77
*1274 FILLER_0_22_83
*1275 FILLER_0_22_85
*1276 FILLER_0_22_97
*1277 FILLER_0_23_105
*1278 FILLER_0_23_111
*1279 FILLER_0_23_113
*1280 FILLER_0_23_125
*1281 FILLER_0_23_137
*1282 FILLER_0_23_149
*1283 FILLER_0_23_15
*1284 FILLER_0_23_161
*1285 FILLER_0_23_167
*1286 FILLER_0_23_169
*1287 FILLER_0_23_181
*1288 FILLER_0_23_193
*1289 FILLER_0_23_205
*1290 FILLER_0_23_217
*1291 FILLER_0_23_223
*1292 FILLER_0_23_225
*1293 FILLER_0_23_237
*1294 FILLER_0_23_249
*1295 FILLER_0_23_261
*1296 FILLER_0_23_27
*1297 FILLER_0_23_273
*1298 FILLER_0_23_279
*1299 FILLER_0_23_281
*1300 FILLER_0_23_293
*1301 FILLER_0_23_3
*1302 FILLER_0_23_305
*1303 FILLER_0_23_317
*1304 FILLER_0_23_329
*1305 FILLER_0_23_335
*1306 FILLER_0_23_337
*1307 FILLER_0_23_349
*1308 FILLER_0_23_361
*1309 FILLER_0_23_373
*1310 FILLER_0_23_385
*1311 FILLER_0_23_39
*1312 FILLER_0_23_391
*1313 FILLER_0_23_393
*1314 FILLER_0_23_405
*1315 FILLER_0_23_417
*1316 FILLER_0_23_429
*1317 FILLER_0_23_441
*1318 FILLER_0_23_447
*1319 FILLER_0_23_449
*1320 FILLER_0_23_461
*1321 FILLER_0_23_473
*1322 FILLER_0_23_485
*1323 FILLER_0_23_497
*1324 FILLER_0_23_503
*1325 FILLER_0_23_505
*1326 FILLER_0_23_51
*1327 FILLER_0_23_517
*1328 FILLER_0_23_529
*1329 FILLER_0_23_541
*1330 FILLER_0_23_55
*1331 FILLER_0_23_553
*1332 FILLER_0_23_559
*1333 FILLER_0_23_561
*1334 FILLER_0_23_57
*1335 FILLER_0_23_573
*1336 FILLER_0_23_585
*1337 FILLER_0_23_597
*1338 FILLER_0_23_609
*1339 FILLER_0_23_615
*1340 FILLER_0_23_617
*1341 FILLER_0_23_69
*1342 FILLER_0_23_81
*1343 FILLER_0_23_93
*1344 FILLER_0_24_109
*1345 FILLER_0_24_121
*1346 FILLER_0_24_133
*1347 FILLER_0_24_139
*1348 FILLER_0_24_141
*1349 FILLER_0_24_15
*1350 FILLER_0_24_153
*1351 FILLER_0_24_165
*1352 FILLER_0_24_177
*1353 FILLER_0_24_189
*1354 FILLER_0_24_195
*1355 FILLER_0_24_197
*1356 FILLER_0_24_209
*1357 FILLER_0_24_221
*1358 FILLER_0_24_233
*1359 FILLER_0_24_245
*1360 FILLER_0_24_251
*1361 FILLER_0_24_253
*1362 FILLER_0_24_265
*1363 FILLER_0_24_27
*1364 FILLER_0_24_277
*1365 FILLER_0_24_289
*1366 FILLER_0_24_29
*1367 FILLER_0_24_3
*1368 FILLER_0_24_301
*1369 FILLER_0_24_307
*1370 FILLER_0_24_309
*1371 FILLER_0_24_321
*1372 FILLER_0_24_333
*1373 FILLER_0_24_345
*1374 FILLER_0_24_357
*1375 FILLER_0_24_363
*1376 FILLER_0_24_365
*1377 FILLER_0_24_377
*1378 FILLER_0_24_389
*1379 FILLER_0_24_401
*1380 FILLER_0_24_41
*1381 FILLER_0_24_413
*1382 FILLER_0_24_419
*1383 FILLER_0_24_421
*1384 FILLER_0_24_433
*1385 FILLER_0_24_445
*1386 FILLER_0_24_457
*1387 FILLER_0_24_469
*1388 FILLER_0_24_475
*1389 FILLER_0_24_477
*1390 FILLER_0_24_489
*1391 FILLER_0_24_501
*1392 FILLER_0_24_513
*1393 FILLER_0_24_525
*1394 FILLER_0_24_53
*1395 FILLER_0_24_531
*1396 FILLER_0_24_533
*1397 FILLER_0_24_545
*1398 FILLER_0_24_557
*1399 FILLER_0_24_569
*1400 FILLER_0_24_581
*1401 FILLER_0_24_587
*1402 FILLER_0_24_589
*1403 FILLER_0_24_601
*1404 FILLER_0_24_613
*1405 FILLER_0_24_65
*1406 FILLER_0_24_77
*1407 FILLER_0_24_83
*1408 FILLER_0_24_85
*1409 FILLER_0_24_97
*1410 FILLER_0_25_105
*1411 FILLER_0_25_111
*1412 FILLER_0_25_113
*1413 FILLER_0_25_125
*1414 FILLER_0_25_137
*1415 FILLER_0_25_149
*1416 FILLER_0_25_15
*1417 FILLER_0_25_161
*1418 FILLER_0_25_167
*1419 FILLER_0_25_169
*1420 FILLER_0_25_181
*1421 FILLER_0_25_193
*1422 FILLER_0_25_205
*1423 FILLER_0_25_217
*1424 FILLER_0_25_223
*1425 FILLER_0_25_225
*1426 FILLER_0_25_237
*1427 FILLER_0_25_249
*1428 FILLER_0_25_261
*1429 FILLER_0_25_27
*1430 FILLER_0_25_273
*1431 FILLER_0_25_279
*1432 FILLER_0_25_281
*1433 FILLER_0_25_293
*1434 FILLER_0_25_3
*1435 FILLER_0_25_305
*1436 FILLER_0_25_317
*1437 FILLER_0_25_329
*1438 FILLER_0_25_335
*1439 FILLER_0_25_337
*1440 FILLER_0_25_349
*1441 FILLER_0_25_361
*1442 FILLER_0_25_373
*1443 FILLER_0_25_385
*1444 FILLER_0_25_39
*1445 FILLER_0_25_391
*1446 FILLER_0_25_393
*1447 FILLER_0_25_405
*1448 FILLER_0_25_417
*1449 FILLER_0_25_429
*1450 FILLER_0_25_441
*1451 FILLER_0_25_447
*1452 FILLER_0_25_449
*1453 FILLER_0_25_461
*1454 FILLER_0_25_473
*1455 FILLER_0_25_485
*1456 FILLER_0_25_497
*1457 FILLER_0_25_503
*1458 FILLER_0_25_505
*1459 FILLER_0_25_51
*1460 FILLER_0_25_517
*1461 FILLER_0_25_529
*1462 FILLER_0_25_541
*1463 FILLER_0_25_55
*1464 FILLER_0_25_553
*1465 FILLER_0_25_559
*1466 FILLER_0_25_561